Version 4
SHEET 1 2564 680
WIRE 32 -608 -64 -608
WIRE 144 -608 32 -608
WIRE 176 -608 144 -608
WIRE 304 -608 256 -608
WIRE 416 -608 304 -608
WIRE 576 -608 480 -608
WIRE 768 -608 576 -608
WIRE 864 -608 768 -608
WIRE -64 -592 -64 -608
WIRE 768 -592 768 -608
WIRE 864 -592 864 -608
WIRE 576 -576 576 -608
WIRE 144 -560 144 -608
WIRE 304 -560 304 -608
WIRE 32 -496 32 -608
WIRE 64 -496 32 -496
WIRE 400 -496 384 -496
WIRE 480 -496 464 -496
WIRE 768 -496 768 -528
WIRE 864 -496 864 -512
WIRE 576 -464 576 -512
WIRE 576 -464 528 -464
WIRE 576 -448 576 -464
WIRE 64 -400 -48 -400
WIRE 528 -400 528 -464
WIRE 528 -400 384 -400
WIRE 576 -352 576 -368
WIRE -32 -304 -48 -304
WIRE 64 -304 48 -304
WIRE 432 -304 384 -304
WIRE 512 -304 496 -304
WIRE -16 -208 -48 -208
WIRE 64 -208 48 -208
WIRE 400 -208 384 -208
WIRE 1600 -160 1584 -160
WIRE 224 -128 224 -144
WIRE 1712 -128 1488 -128
WIRE 1856 -128 1776 -128
WIRE 2048 -128 1856 -128
WIRE 2144 -128 2048 -128
WIRE 2048 -112 2048 -128
WIRE 2144 -112 2144 -128
WIRE 1856 -96 1856 -128
WIRE 1360 -64 1296 -64
WIRE 1488 -64 1488 -128
WIRE 1488 -64 1456 -64
WIRE 1536 -64 1488 -64
WIRE 1632 -64 1600 -64
WIRE -320 -32 -528 -32
WIRE -208 -32 -256 -32
WIRE -64 -32 -208 -32
WIRE 32 -32 -64 -32
WIRE 144 -32 32 -32
WIRE 176 -32 144 -32
WIRE 304 -32 256 -32
WIRE 416 -32 304 -32
WIRE 576 -32 480 -32
WIRE 768 -32 576 -32
WIRE 864 -32 768 -32
WIRE 1216 -32 1120 -32
WIRE 1328 -32 1216 -32
WIRE 1360 -32 1328 -32
WIRE 1488 -32 1456 -32
WIRE 1632 -32 1632 -64
WIRE 1632 -32 1488 -32
WIRE -528 -16 -528 -32
WIRE 768 -16 768 -32
WIRE 864 -16 864 -32
WIRE 1120 -16 1120 -32
WIRE 2048 -16 2048 -48
WIRE 2144 -16 2144 -32
WIRE 576 0 576 -32
WIRE 144 16 144 -32
WIRE 304 16 304 -32
WIRE 1328 16 1328 -32
WIRE 1488 16 1488 -32
WIRE -528 80 -528 64
WIRE 32 80 32 -32
WIRE 64 80 32 80
WIRE 400 80 384 80
WIRE 480 80 464 80
WIRE 768 80 768 48
WIRE 864 80 864 64
WIRE 1216 80 1216 -32
WIRE 1248 80 1216 80
WIRE 1584 80 1568 80
WIRE 1664 80 1648 80
WIRE 576 112 576 64
WIRE 576 112 528 112
WIRE 1856 112 1856 -32
WIRE 1856 112 1712 112
WIRE 576 128 576 112
WIRE 1856 144 1856 112
WIRE 64 176 -48 176
WIRE 528 176 528 112
WIRE 528 176 384 176
WIRE 1248 176 1136 176
WIRE 1712 176 1712 112
WIRE 1712 176 1568 176
WIRE 576 224 576 208
WIRE 1856 240 1856 224
WIRE -32 272 -48 272
WIRE 64 272 48 272
WIRE 432 272 384 272
WIRE 512 272 496 272
WIRE 1152 272 1136 272
WIRE 1248 272 1232 272
WIRE 1616 272 1568 272
WIRE 1696 272 1680 272
WIRE -16 368 -48 368
WIRE 64 368 48 368
WIRE 400 368 384 368
WIRE 1168 368 1136 368
WIRE 1248 368 1232 368
WIRE 1584 368 1568 368
WIRE 224 448 224 432
WIRE 1408 448 1408 432
FLAG -528 80 0
FLAG 864 80 0
FLAG 768 80 0
FLAG 400 368 0
FLAG 224 448 0
FLAG -48 272 0
FLAG -48 368 0
FLAG 512 272 0
FLAG 576 224 0
FLAG 864 -32 OUT_50
FLAG -64 -32 IN
FLAG 480 80 0
FLAG 864 -496 0
FLAG 768 -496 0
FLAG 400 -208 0
FLAG 224 -128 0
FLAG -48 -304 0
FLAG -48 -208 0
FLAG 512 -304 0
FLAG 576 -352 0
FLAG 864 -608 OUT_75
FLAG -64 -608 IN
FLAG 480 -496 0
FLAG -64 32 0
FLAG -64 -528 0
FLAG -208 32 0
FLAG -48 -400 0
FLAG -48 176 0
FLAG 2144 -16 0
FLAG 2048 -16 0
FLAG 1408 448 0
FLAG 1136 272 0
FLAG 1136 368 0
FLAG 1696 272 0
FLAG 1856 240 0
FLAG 2144 -128 OUT_5
FLAG 1120 -32 IN
FLAG 1664 80 0
FLAG 1120 48 0
FLAG 1136 176 0
FLAG 1296 -64 0
FLAG 1584 368 OUT_5
SYMBOL voltage -528 -32 R0
WINDOW 123 0 0 Left 0
WINDOW 39 0 0 Left 0
SYMATTR InstName V1
SYMATTR Value 5
SYMBOL schottky 416 -16 R270
WINDOW 0 32 32 VTop 2
WINDOW 3 0 32 VBottom 2
SYMATTR InstName D1
SYMATTR Value MBRS1100
SYMATTR Description Diode
SYMATTR Type diode
SYMBOL res 560 112 R0
SYMATTR InstName R1
SYMATTR Value 33k
SYMBOL cap 432 288 R270
WINDOW 0 32 32 VTop 2
WINDOW 3 0 32 VBottom 2
WINDOW 123 -21 32 VBottom 2
SYMATTR InstName C2
SYMATTR Value 2n2
SYMATTR Value2 Rser=100K
SYMBOL cap 48 352 R90
WINDOW 0 0 32 VBottom 2
WINDOW 3 32 32 VTop 2
SYMATTR InstName C3
SYMATTR Value 2n2
SYMBOL res 64 256 R90
WINDOW 0 0 56 VBottom 2
WINDOW 3 32 56 VTop 2
SYMATTR InstName R2
SYMATTR Value 20k
SYMATTR SpiceLine tol=1 pwr=0.1
SYMBOL cap 400 64 M90
WINDOW 0 0 32 VBottom 2
WINDOW 3 32 32 VTop 2
SYMATTR InstName C4
SYMATTR Value 1µ
SYMBOL cap 560 0 R0
WINDOW 123 21 62 Left 2
WINDOW 3 43 34 Left 2
SYMATTR Value2 Rpar=1Meg
SYMATTR Value 4.7p
SYMATTR InstName C5
SYMBOL res 848 -32 R0
SYMATTR InstName Rload
SYMATTR Value 1k
SYMBOL PowerProducts\\LT8361 224 224 R0
SYMATTR InstName U1
SYMBOL schottky 416 -592 R270
WINDOW 0 32 32 VTop 2
WINDOW 3 0 32 VBottom 2
SYMATTR InstName D2
SYMATTR Value MBRS1100
SYMATTR Description Diode
SYMATTR Type diode
SYMBOL cap 752 -592 R0
SYMATTR InstName C6
SYMATTR Value 4.7µ
SYMATTR SpiceLine V=100 Irms=0 Rser=0 Lser=0 mfg="Murata" pn="GRM31CZ72A475ME11" type="X7R"
SYMBOL res 560 -464 R0
SYMATTR InstName R3
SYMATTR Value 21.5K
SYMATTR SpiceLine tol=1 pwr=0.1
SYMBOL cap 432 -288 R270
WINDOW 0 32 32 VTop 2
WINDOW 3 0 32 VBottom 2
WINDOW 123 -21 32 VBottom 2
SYMATTR InstName C7
SYMATTR Value 2n2
SYMATTR Value2 Rser=100K
SYMBOL cap 48 -224 R90
WINDOW 0 0 32 VBottom 2
WINDOW 3 32 32 VTop 2
SYMATTR InstName C8
SYMATTR Value 2n2
SYMBOL res 64 -320 R90
WINDOW 0 0 56 VBottom 2
WINDOW 3 32 56 VTop 2
SYMATTR InstName R4
SYMATTR Value 20k
SYMATTR SpiceLine tol=1 pwr=0.1
SYMBOL cap 400 -512 M90
WINDOW 0 0 32 VBottom 2
WINDOW 3 32 32 VTop 2
SYMATTR InstName C9
SYMATTR Value 1µ
SYMBOL cap 560 -576 R0
WINDOW 123 21 62 Left 2
WINDOW 3 43 34 Left 2
SYMATTR Value2 Rpar=1Meg
SYMATTR Value 4.7p
SYMATTR InstName C10
SYMBOL res 848 -608 R0
SYMATTR InstName Rload1
SYMATTR Value 1k5
SYMBOL PowerProducts\\LT8361 224 -352 R0
SYMATTR InstName U2
SYMBOL ind 160 -592 R270
WINDOW 0 32 56 VTop 2
WINDOW 3 5 56 VBottom 2
SYMATTR InstName L2
SYMATTR Value 6.8µ
SYMATTR SpiceLine Ipk=2.4 Rser=0.056 Rpar=4000 Cpar=2.1p mfg="Würth Elektronik" pn="7440700068 WE-TPC 8020"
SYMBOL ind 160 -16 R270
WINDOW 0 32 56 VTop 2
WINDOW 3 5 56 VBottom 2
SYMATTR InstName L1
SYMATTR Value 6.8µ
SYMATTR SpiceLine Ipk=2.4 Rser=0.056 Rpar=4000 Cpar=2.1p mfg="Würth Elektronik" pn="7440700068 WE-TPC 8020"
SYMBOL cap -80 -32 R0
SYMATTR InstName C11
SYMATTR Value 10µ
SYMATTR SpiceLine V=35 Irms=0 Rser=0 Lser=0 mfg="Murata" pn="GRM21BR6YA106ME43" type="X5R"
SYMBOL cap -80 -592 R0
SYMATTR InstName C12
SYMATTR Value 10µ
SYMATTR SpiceLine V=35 Irms=0 Rser=0 Lser=0 mfg="Murata" pn="GRM21BR6YA106ME43" type="X5R"
SYMBOL FerriteBead -288 -32 R90
WINDOW 0 -16 0 VBottom 2
SYMATTR InstName L3
SYMATTR Value 2.1µ
SYMATTR SpiceLine Ipk=5 Rser=0.0075 Rpar=450 Cpar=1.2p mfg="Würth Elektronik" pn="7427511 WE-SUKW 8050"
SYMBOL polcap -224 -32 R0
WINDOW 3 24 56 Left 2
SYMATTR Value 100µ
SYMATTR InstName C13
SYMATTR Description Capacitor
SYMATTR Type cap
SYMATTR SpiceLine V=35 Irms=230m Rser=0.268 Lser=5.32n mfg="Würth Elektronik" pn="860130575004 WCAP-ATET 10x12,5" type="Al electrolytic"
SYMBOL cap 752 -16 R0
SYMATTR InstName C1
SYMATTR Value 4.7µ
SYMATTR SpiceLine V=100 Irms=0 Rser=0 Lser=0 mfg="Murata" pn="GRM31CZ72A475ME11" type="X7R"
SYMBOL schottky 1712 -112 R270
WINDOW 0 32 32 VTop 2
WINDOW 3 0 32 VBottom 2
SYMATTR InstName D3
SYMATTR Value MBRS1100
SYMATTR Description Diode
SYMATTR Type diode
SYMBOL cap 2032 -112 R0
SYMATTR InstName C14
SYMATTR Value 47µ
SYMATTR SpiceLine V=10 Irms=0 Rser=0 Lser=0 mfg="Murata" pn="GRM32ER71A476KE15" type="X7R"
SYMATTR SpiceLine2 x2
SYMBOL res 1840 128 R0
SYMATTR InstName R5
SYMATTR Value 475K
SYMATTR SpiceLine tol=1 pwr=0.1
SYMBOL cap 1616 288 R270
WINDOW 0 32 32 VTop 2
WINDOW 3 0 32 VBottom 2
WINDOW 123 -21 32 VBottom 2
SYMATTR InstName C15
SYMATTR Value 2n2
SYMATTR Value2 Rser=100K
SYMBOL cap 1232 352 R90
WINDOW 0 0 32 VBottom 2
WINDOW 3 32 32 VTop 2
SYMATTR InstName C16
SYMATTR Value 2n2
SYMBOL res 1248 256 R90
WINDOW 0 0 56 VBottom 2
WINDOW 3 32 56 VTop 2
SYMATTR InstName R6
SYMATTR Value 20k
SYMATTR SpiceLine tol=1 pwr=0.1
SYMBOL cap 1584 64 M90
WINDOW 0 0 32 VBottom 2
WINDOW 3 32 32 VTop 2
SYMATTR InstName C17
SYMATTR Value 1µ
SYMBOL cap 1840 -96 R0
WINDOW 123 21 62 Left 2
WINDOW 3 43 34 Left 2
SYMATTR Value2 Rpar=1Meg
SYMATTR Value 4.7p
SYMATTR InstName C18
SYMBOL res 2128 -128 R0
SYMATTR InstName Rload2
SYMATTR Value 10
SYMBOL PowerProducts\\LT8361 1408 224 R0
SYMATTR InstName U3
SYMBOL cap 1104 -16 R0
SYMATTR InstName C19
SYMATTR Value 10µ
SYMATTR SpiceLine V=35 Irms=0 Rser=0 Lser=0 mfg="Murata" pn="GRM21BR6YA106ME43" type="X5R"
SYMBOL WE-TDC 1408 -48 R0
SYMATTR SpiceModel 8038_74489440047_4.7u
SYMATTR InstName L5
SYMBOL cap 1600 -80 R90
WINDOW 0 0 32 VBottom 2
WINDOW 3 32 32 VTop 2
SYMATTR InstName C20
SYMATTR Value 1µ
SYMATTR SpiceLine V=50 Irms=0 Rser=0 Lser=0 mfg="Murata" pn="GCM21BR71H105MA03" type="X7R"
TEXT 520 432 Left 2 !.tran 10m startup
